Input Parameters:
   integrator                     = md
   tinit                          = 0
   dt                             = 0.002
   nsteps                         = 250000
   init-step                      = 0
   simulation-part                = 1
   mts                            = false
   comm-mode                      = Linear
   nstcomm                        = 100
   bd-fric                        = 0
   ld-seed                        = -174063939
   emtol                          = 10
   emstep                         = 0.01
   niter                          = 20
   fcstep                         = 0
   nstcgsteep                     = 1000
   nbfgscorr                      = 10
   rtpi                           = 0.05
   nstxout                        = 0
   nstvout                        = 5000
   nstfout                        = 5000
   nstlog                         = 1000
   nstcalcenergy                  = 100
   nstenergy                      = 1000
   nstxout-compressed             = 5000
   compressed-x-precision         = 1000
   cutoff-scheme                  = Verlet
   nstlist                        = 20
   pbc                            = xyz
   periodic-molecules             = false
   verlet-buffer-tolerance        = 0.005
   rlist                          = 1.212
   coulombtype                    = PME
   coulomb-modifier               = Potential-shift
   rcoulomb-switch                = 0
   rcoulomb                       = 1.2
   epsilon-r                      = 1
   epsilon-rf                     = inf
   vdw-type                       = Cut-off
   vdw-modifier                   = Force-switch
   rvdw-switch                    = 1
   rvdw                           = 1.2
   DispCorr                       = No
   table-extension                = 1
   fourierspacing                 = 0.12
   fourier-nx                     = 104
   fourier-ny                     = 104
   fourier-nz                     = 128
   pme-order                      = 4
   ewald-rtol                     = 1e-05
   ewald-rtol-lj                  = 0.001
   lj-pme-comb-rule               = Geometric
   ewald-geometry                 = 0
   epsilon-surface                = 0
   tcoupl                         = Berendsen
   nsttcouple                     = 10
   nh-chain-length                = 0
   print-nose-hoover-chain-variables = false
   pcoupl                         = Berendsen
   pcoupltype                     = Semiisotropic
   nstpcouple                     = 10
   tau-p                          = 5
   compressibility (3x3):
      compressibility[    0]={ 4.50000e-05,  0.00000e+00,  0.00000e+00}
      compressibility[    1]={ 0.00000e+00,  4.50000e-05,  0.00000e+00}
      compressibility[    2]={ 0.00000e+00,  0.00000e+00,  4.50000e-05}
   ref-p (3x3):
      ref-p[    0]={ 1.00000e+00,  0.00000e+00,  0.00000e+00}
      ref-p[    1]={ 0.00000e+00,  1.00000e+00,  0.00000e+00}
      ref-p[    2]={ 0.00000e+00,  0.00000e+00,  1.00000e+00}
   refcoord-scaling               = COM
   posres-com (3):
      posres-com[0]= 5.19437e-01
      posres-com[1]= 4.96173e-01
      posres-com[2]= 4.92748e-01
   posres-comB (3):
      posres-comB[0]= 5.19437e-01
      posres-comB[1]= 4.96173e-01
      posres-comB[2]= 4.92748e-01
   QMMM                           = false
qm-opts:
   ngQM                           = 0
   constraint-algorithm           = Lincs
   continuation                   = true
   Shake-SOR                      = false
   shake-tol                      = 0.0001
   lincs-order                    = 4
   lincs-iter                     = 1
   lincs-warnangle                = 30
   nwall                          = 0
   wall-type                      = 9-3
   wall-r-linpot                  = -1
   wall-atomtype[0]               = -1
   wall-atomtype[1]               = -1
   wall-density[0]                = 0
   wall-density[1]                = 0
   wall-ewald-zfac                = 3
   pull                           = false
   awh                            = false
   rotation                       = false
   interactiveMD                  = false
   disre                          = No
   disre-weighting                = Conservative
   disre-mixed                    = false
   dr-fc                          = 1000
   dr-tau                         = 0
   nstdisreout                    = 100
   orire-fc                       = 0
   orire-tau                      = 0
   nstorireout                    = 100
   free-energy                    = no
   cos-acceleration               = 0
   deform (3x3):
      deform[    0]={ 0.00000e+00,  0.00000e+00,  0.00000e+00}
      deform[    1]={ 0.00000e+00,  0.00000e+00,  0.00000e+00}
      deform[    2]={ 0.00000e+00,  0.00000e+00,  0.00000e+00}
   simulated-tempering            = false
   swapcoords                     = no
   userint1                       = 0
   userint2                       = 0
   userint3                       = 0
   userint4                       = 0
   userreal1                      = 0
   userreal2                      = 0
   userreal3                      = 0
   userreal4                      = 0
   applied-forces:
     electric-field:
       x:
         E0                       = 0
         omega                    = 0
         t0                       = 0
         sigma                    = 0
       y:
         E0                       = 0
         omega                    = 0
         t0                       = 0
         sigma                    = 0
       z:
         E0                       = 0
         omega                    = 0
         t0                       = 0
         sigma                    = 0
     density-guided-simulation:
       active                     = false
       group                      = protein
       similarity-measure         = inner-product
       atom-spreading-weight      = unity
       force-constant             = 1e+09
       gaussian-transform-spreading-width = 0.2
       gaussian-transform-spreading-range-in-multiples-of-width = 4
       reference-density-filename = reference.mrc
       nst                        = 1
       normalize-densities        = true
       adaptive-force-scaling     = false
       adaptive-force-scaling-time-constant = 4
       shift-vector               =
       transformation-matrix      =
grpopts:
   nrdf:       54073      102078      314613
   ref-t:         310         310         310
   tau-t:           1           1           1
annealing:          No          No          No
annealing-npoints:           0           0           0
   acc:	           0           0           0
   nfreeze:           N           N           N
   energygrp-flags[  0]: 0

Changing nstlist from 20 to 100, rlist from 1.212 to 1.329

Initializing Domain Decomposition on 24 ranks
Dynamic load balancing: auto
Using update groups, nr 79916, average size 2.8 atoms, max. radius 0.139 nm
Minimum cell size due to atom displacement: 0.709 nm
Initial maximum distances in bonded interactions:
    two-body bonded interactions: 0.488 nm, LJ-14, atoms 9961 9972
  multi-body bonded interactions: 0.625 nm, CMAP Dih., atoms 9957 9970
Minimum cell size due to bonded interactions: 0.688 nm
Scaling the initial minimum size with 1/0.8 (option -dds) = 1.25
Using 0 separate PME ranks
Optimizing the DD grid for 24 cells with a minimum initial size of 0.886 nm
The maximum allowed number of cells is: X 13 Y 13 Z 16
Domain decomposition grid 8 x 3 x 1, separate PME ranks 0
PME domain decomposition: 8 x 3 x 1
Domain decomposition rank 0, coordinates 0 0 0

The initial number of communication pulses is: X 2 Y 1
The initial domain decomposition cell size is: X 1.53 nm Y 4.07 nm

The maximum allowed distance for atom groups involved in interactions is:
                 non-bonded interactions           1.607 nm
(the following are initial values, they could change due to box deformation)
            two-body bonded interactions  (-rdd)   1.607 nm
          multi-body bonded interactions  (-rdd)   1.526 nm

When dynamic load balancing gets turned on, these settings will change to:
The maximum number of communication pulses is: X 2 Y 2
The minimum size for domain decomposition cells is 1.107 nm
The requested allowed shrink of DD cells (option -dds) is: 0.80
The allowed shrink of domain decomposition cells is: X 0.73 Y 0.27
The maximum allowed distance for atom groups involved in interactions is:
                 non-bonded interactions           1.607 nm
            two-body bonded interactions  (-rdd)   1.607 nm
          multi-body bonded interactions  (-rdd)   1.107 nm

On host node3908.accelgor.os 2 GPUs selected for this run.
Mapping of GPU IDs to the 24 GPU tasks in the 24 ranks on this node:
  PP:0,PP:0,PP:0,PP:0,PP:0,PP:0,PP:0,PP:0,PP:0,PP:0,PP:0,PP:0,PP:1,PP:1,PP:1,PP:1,PP:1,PP:1,PP:1,PP:1,PP:1,PP:1,PP:1,PP:1
PP tasks will do (non-perturbed) short-ranged and most bonded interactions on the GPU
PP task will update and constrain coordinates on the CPU
Using 24 MPI processes

Non-default thread affinity set, disabling internal thread affinity

Using 2 OpenMP threads per MPI process

System total charge: 0.000
Will do PME sum in reciprocal space for electrostatic interactions.

Using a Gaussian width (1/beta) of 0.384195 nm for Ewald
Potential shift: LJ r^-12: -2.648e-01 r^-6: -5.349e-01, Ewald -8.333e-06
Initialized non-bonded Ewald tables, spacing: 1.02e-03 size: 1176

Generated table with 1164 data points for 1-4 COUL.
Tabscale = 500 points/nm
Generated table with 1164 data points for 1-4 LJ6.
Tabscale = 500 points/nm
Generated table with 1164 data points for 1-4 LJ12.
Tabscale = 500 points/nm

Using GPU 8x8 nonbonded short-range kernels

Using a dual 8x8 pair-list setup updated with dynamic, rolling pruning:
  outer list: updated every 100 steps, buffer 0.129 nm, rlist 1.329 nm
  inner list: updated every  14 steps, buffer 0.001 nm, rlist 1.201 nm
At tolerance 0.005 kJ/mol/ps per atom, equivalent classical 1x1 list would be:
  outer list: updated every 100 steps, buffer 0.287 nm, rlist 1.487 nm
  inner list: updated every  14 steps, buffer 0.059 nm, rlist 1.259 nm

Initializing LINear Constraint Solver

The number of constraints is 37085

Linking all bonded interactions to atoms

Intra-simulation communication will occur every 10 steps.

There are: 221569 Atoms
Atom distribution over 24 domains: av 9232 stddev 70 min 9117 max 9350

NOTE: DLB will not turn on during the first phase of PME tuning
Center of mass motion removal mode is Linear
We have the following groups for center of mass motion removal:
  0:  SOLU_MEMB
  1:  SOLV

Started mdrun on rank 0 Mon Oct 16 20:28:57 2023

           Step           Time
              0        0.00000

   Energies (kJ/mol)
           Bond            U-B    Proper Dih.  Improper Dih.      CMAP Dih.
    3.95586e+04    1.59120e+05    1.25539e+05    3.91470e+03   -1.46064e+03
          LJ-14     Coulomb-14        LJ (SR)   Coulomb (SR)   Coul. recip.
    3.00138e+04    7.80225e+04    1.18671e+05   -2.86374e+06    1.10918e+04
    3.59717e+03    1.62016e+02   -2.29551e+06    6.09297e+05   -1.68621e+06
   -1.68621e+06    3.11331e+02   -1.69547e+01    4.17093e-06

	<====  A V E R A G E S  ====>

	Statistics over 250001 steps using 2501 frames

   Energies (kJ/mol)
           Bond            U-B    Proper Dih.  Improper Dih.      CMAP Dih.
    3.79730e+04    1.58278e+05    1.25139e+05    3.73404e+03   -1.69194e+03
          LJ-14     Coulomb-14        LJ (SR)   Coulomb (SR)   Coul. recip.
    2.99291e+04    7.79177e+04    1.18313e+05   -2.86540e+06    1.08386e+04
 Position Rest.     Dih. Rest.      Potential    Kinetic En.   Total Energy
    6.37949e+03    1.95716e+02   -2.29839e+06    6.06764e+05   -1.69163e+06
  Conserved En.    Temperature Pressure (bar)   Constr. rmsd
   -1.66991e+06    3.10036e+02    3.93107e-02    0.00000e+00

          Box-X          Box-Y          Box-Z
    1.22045e+01    1.22045e+01    1.46072e+01

   Total Virial (kJ/mol)
    2.00534e+05    2.19633e+03    5.48895e+02
    2.19623e+03    2.01668e+05   -1.24534e+02
    5.48428e+02   -1.25190e+02    2.04555e+05

   Pressure (bar)
    8.97635e+00   -3.45958e+01   -7.74532e+00
   -3.45943e+01   -7.56972e+00    2.94575e+00
   -7.73819e+00    2.95576e+00   -1.28871e+00

         T-SOLU         T-MEMB         T-SOLV
    3.10327e+02    3.10322e+02    3.09894e+02
